LAMMPS (22 Jul 2025)
package omp 0
using multi-threaded neighbor list subroutines
# Input script to debug the threebody/table command
# Initialization
units lj
dimension 3
boundary p p p

# Styles of atoms and that stuff
atom_style atomic
pair_style hybrid/overlay zero 0.0 table/omp linear 5000000 threebody/table

newton on

# Create simulaiton box
region simulation_box block -$L $L -$L $L -$L $L
region simulation_box block -1 $L -$L $L -$L $L
region simulation_box block -1 1 -$L $L -$L $L
region simulation_box block -1 1 -1 $L -$L $L
region simulation_box block -1 1 -1 1 -$L $L
region simulation_box block -1 1 -1 1 -1 $L
region simulation_box block -1 1 -1 1 -1 1
# N-atom-types region-ID keyword value Is necesesary the extra/special/per/atom (# of special neighbors per atom)
create_box 2 simulation_box
Created orthogonal box = (-1 -1 -1) to (1 1 1)

# Atom types
mass 1 1.0      # PA
mass 2 1.0      # PB

# Coefficients
include potential.in
# Script with the pair-wise interaction and bonds between particles

pair_coeff 1 1 zero 0.5
pair_coeff 1 2 table/omp sysFiles/pachTab.table POT 0.6 # sw/omp sysFiles/patchyPot.sw NULL NULL PA PB
Reading pair table potential file sysFiles/pachTab.table with DATE: 2024-07-08
pair_coeff 2 2 table/omp sysFiles/pachTab.table POT 0.6 # sw/omp sysFiles/patchyPot.sw NULL NULL PA PB
Reading pair table potential file sysFiles/pachTab.table with DATE: 2024-07-08
pair_coeff * * threebody/table swapMech.3b PA PB

# Particles
include particles.in
# Script with all molecule information and create groups for computes

# Introduce the molecules
# ID style args keyword arg
region spawn_box block -$L $L -$L $L -$L $L
region spawn_box block -1 $L -$L $L -$L $L
region spawn_box block -1 1 -$L $L -$L $L
region spawn_box block -1 1 -1 $L -$L $L
region spawn_box block -1 1 -1 1 -$L $L
region spawn_box block -1 1 -1 1 -1 $L
region spawn_box block -1 1 -1 1 -1 1

# create_atoms type style args keyword values
# style_random: N seed region-ID
# keyword_mol: template-ID seed
# keyword_overlap: overlap value = only insert if at least this distance from all existing atoms
# keyword_maxtry: maxtry value = number of attempts to insert a particle before failure

# One PA
create_atoms 1 single 0.5 0.5 0.5
Created 1 atoms

# Anothre PA
#create_atoms 1 single 0.5 0.5 0.5

# Patch B
create_atoms 2 single 0.0 0.0 0.0
Created 1 atoms

# Patch B
create_atoms 2 single 0.45 0.0 0.0
Created 1 atoms

# Patch B
create_atoms 2 single 0.0 0.45 0.0
Created 1 atoms

# Create groups for the threebody potential
group PA type 1
1 atoms in group PA
group PB type 2
3 atoms in group PB

# Neighbor list
neighbor 1.8 bin # extra-distance style
#neigh_modify delay 0 every 1 check no
#neigh_modify exclude molecule/intra CrossLinker
#neigh_modify exclude molecule/intra Monomer

# COMPUTES

# Compute global kinetic and potential energy and temperature
compute t all temp
compute p all pressure t
compute ep all pe
compute ek all ke
variable eT equal etotal
variable eB equal ebond
variable eA equal eangle
variable eM equal emol
variable ec equal ecouple
variable eC equal econserve

# Potencial energy per pair-wise interaction
compute patchPair all pair table/omp epair
compute swapPair all pair threebody/table epair

# Compute the pressure
compute press all pressure t ke virial
compute pressVirial all pressure t virial
compute pressVirialMod all pressure t pair bond angle

# Computes for the stress
compute cstress all stress/atom t ke pair bond angle
compute cstressVirial all stress/atom t virial
compute cstressVirialMod all stress/atom t pair bond angle
compute stress all reduce sum c_cstress[*]
compute stressVirial all reduce sum c_cstressVirial[*]
compute stressVirialMod all reduce sum c_cstressVirialMod[*]

# Compute potential energy per atom
compute potAtom all pe/atom pair

# DUMPS and FIXES

thermo 1

# Save global energies and temperature
fix Energy all ave/time 1 1 1 c_t c_patchPair c_swapPair c_ep c_ek v_eT v_ec v_eC c_p v_eB v_eA v_eM file /home/franvt/GitRepos/molDynLammps/polymericGels/tests-3body/data/2026-01-28-105503/system_assembly.fixf

# Save Pressure and Stress tensor
fix fixStress5 all ave/time 1 1 1 c_p c_press[*] c_pressVirial[*] c_pressVirialMod[*] c_stress[*] c_stressVirial[*] c_stressVirialMod[*] file /home/franvt/GitRepos/molDynLammps/polymericGels/tests-3body/data/2026-01-28-105503/stress_assembly.fixf

# Save atom positions with cluster id
dump dumpID all custom 1 /home/franvt/GitRepos/molDynLammps/polymericGels/tests-3body/data/2026-01-28-105503/traj/traj_assembly.*.dumpf id type x y z vx vy vz fx fy fz c_potAtom
dump_modify dumpID pbc yes # remap atoms via periodic boundary conditions

# RUN SIMULATION

# Brownian Dynamics using Langevin Thermostat

timestep 0.001

fix VelVerlet all nve # Use Velocity Verlet integrator

run 2000
Hybrid pair style last /omp style table/omp
Last active /omp style is pair_style table/omp
Step          Temp          E_pair         E_mol          TotEng         Press
0   0             -0.88288807     0             -0.88288807    -0.91008095
Averages over the last 1001 of 2001 rows, steps 1000 to 2000:
Temp E_pair E_mol TotEng Press
0.177215 -1.0823 0 -0.882929 0.052578
Loop time of 0.16907 on 2 procs for 2000 steps with 4 atoms
